Circuit: * I:\COSMIC-SAIL-2024\MUONS_DOC\SIMILATION_ELECTRONIQUE\OK\Muons_V4_b.asc

Limiting rise time of source v3 to 0.0005
Limiting fall time of source v3 to 0.0005
Limiting rise time of source v1 to 5e-008
Limiting fall time of source v1 to 5e-008
Instance "m:u5:6": Length shorter than recommended for a level 2 MOSFET.
Instance "m:u5:5": Length shorter than recommended for a level 2 MOSFET.
Instance "m:u5:4": Length shorter than recommended for a level 2 MOSFET.
Instance "m:u5:3": Length shorter than recommended for a level 2 MOSFET.
Instance "m:u5:2": Length shorter than recommended for a level 2 MOSFET.
Instance "m:u5:1": Length shorter than recommended for a level 2 MOSFET.
Direct Newton iteration failed to find .op point.  (Use ".option noopiter" to skip.)
Starting Gmin stepping
Gmin = 10
Gmin = 1.07374
Gmin = 0.115292
Gmin = 0.0123794
Gmin = 0.00132923
vernier = 0.5
vernier = 0.25
vernier = 0.125
vernier = 0.0625
Gmin = 0.00100083
vernier = 0.03125
vernier = 0.015625
vernier = 0.0078125
vernier = 0.00390625
vernier = 0.00195313
Gmin = 0.00100083
vernier = 0.000976563
vernier = 0.000488281
Gmin = 0
Gmin stepping succeeded in finding the operating point.


Date: Mon Feb 19 13:26:01 2024
Total elapsed time: 0.862 seconds.

tnom = 27
temp = 27
method = modified trap
totiter = 11927
traniter = 10293
tranpoints = 3691
accept = 2911
rejected = 780
matrix size = 80
fillins = 93
solver = Normal
Thread vector: 15.9/9.4[4] 15.1/5.7[4] 4.7/3.2[4] 0.3/2.7[1]  2592/500
Matrix Compiler1: off  [2.9]/3.3/3.2
Matrix Compiler2: 8.96 KB object code size  1.1/1.6/[0.6]

