Circuit: * I:\COSMIC-SAIL-2024\MUONS_DOC\SIMILATION_ELECTRONIQUE\OK\Muons_V4_c.asc

Limiting rise time of source v3 to 0.0005
Limiting fall time of source v3 to 0.0005
Limiting rise time of source v1 to 5e-008
Limiting fall time of source v1 to 5e-008
Instance "m:u5:6": Length shorter than recommended for a level 2 MOSFET.
Instance "m:u5:5": Length shorter than recommended for a level 2 MOSFET.
Instance "m:u5:4": Length shorter than recommended for a level 2 MOSFET.
Instance "m:u5:3": Length shorter than recommended for a level 2 MOSFET.
Instance "m:u5:2": Length shorter than recommended for a level 2 MOSFET.
Instance "m:u5:1": Length shorter than recommended for a level 2 MOSFET.
Direct Newton iteration failed to find .op point.  (Use ".option noopiter" to skip.)
Starting Gmin stepping
Gmin = 10
Gmin = 1.07374
Gmin = 0.115292
Gmin = 0.0123794
Gmin = 0.00132923
vernier = 0.5
vernier = 0.25
vernier = 0.125
vernier = 0.0625
Gmin = 0.00100083
vernier = 0.03125
vernier = 0.015625
vernier = 0.0078125
vernier = 0.00390625
vernier = 0.00195313
Gmin = 0.00100083
vernier = 0.000976563
vernier = 0.000488281
Gmin = 0
Gmin stepping failed

Starting source stepping with srcstepmethod=0
Source Step = 3.0303%
vernier = 0.25
Source Step = 7.57576%
Source Step = 15.1515%
Source Step = 22.7273%
Source Step = 30.303%
Source Step = 34.2803%
Source Step = 36.1742%
Source Step = 38.0682%
Source Step = 38.0889%
Source Step = 38.1185%
Source Step = 38.1481%
Source Step = 38.1777%
Source Step = 38.2073%
vernier = 0.00146484
Source Step = 38.2428%
Source Step = 38.2872%
Source Step = 38.3316%
Source Step = 38.3759%
Source Step = 38.4203%
vernier = 0.00219727
Source Step = 38.4714%
Source Step = 38.538%
Source Step = 38.6046%
Source Step = 38.6711%
Source Step = 38.7377%
vernier = 0.0032959
Source Step = 38.811%
Source Step = 38.9108%
Source Step = 39.0107%
Source Step = 39.1106%
Source Step = 39.2105%
vernier = 0.00494385
Source Step = 39.3153%
Source Step = 39.4651%
Source Step = 39.615%
Source Step = 39.7648%
Source Step = 39.9146%
Source Step = 40.0644%
vernier = 0.00741577
Source Step = 40.2891%
Source Step = 40.5138%
Source Step = 40.7386%
Source Step = 40.9633%
Source Step = 41.188%
vernier = 0.0111237
Source Step = 41.5138%
Source Step = 41.8509%
Source Step = 42.188%
Source Step = 42.5251%
Source Step = 42.8622%
vernier = 0.0166855
Source Step = 43.3341%
Source Step = 43.8397%
Source Step = 44.3453%
Source Step = 44.8509%
Source Step = 45.3566%
vernier = 0.0250282
Source Step = 46.0392%
Source Step = 46.7976%
Source Step = 47.556%
Source Step = 48.3144%
Source Step = 49.0729%
vernier = 0.0375423
Source Step = 50.0588%
Source Step = 51.1965%
Source Step = 52.3341%
Source Step = 53.4718%
Source Step = 54.6094%
vernier = 0.0563135
Source Step = 56.0315%
Source Step = 57.738%
Source Step = 59.4444%
Source Step = 61.1509%
Source Step = 62.8574%
vernier = 0.0844703
Source Step = 64.9051%
Source Step = 67.4648%
Source Step = 70.0245%
Source Step = 72.5842%
Source Step = 75.1439%
vernier = 0.126705
Source Step = 78.0876%
Source Step = 81.9272%
Source Step = 85.7667%
Source Step = 89.6063%
Source Step = 93.4458%
vernier = 0.190058
Source Step = 97.6694%
Source Step = 100%
Source Step = 100%
Source Step = 100%
Source stepping succeeded in finding the operating point.


Date: Mon Feb 19 13:22:39 2024
Total elapsed time: 1.379 seconds.

tnom = 27
temp = 27
method = modified trap
totiter = 9912
traniter = 3126
tranpoints = 1397
accept = 1314
rejected = 83
matrix size = 78
fillins = 69
solver = Normal
Thread vector: 18.1/12.4[3] 28.9/23.1[3] 4.3/2.5[3] 0.4/4.1[1]  2592/500
Matrix Compiler1: 7.30 KB object code size  11.6/2.6/[1.8]
Matrix Compiler2: 8.31 KB object code size  1.3/2.5/[0.6]

