Circuit: * I:\FRANCOIS\MUON\Muons_V4_d.asc

WARNING: Specified period is not longer than the sum of Trise, Tfall, and Ton for v3.  Increasing period to 0.05
Limiting rise time of source v3 to 9.71445e-018
Limiting fall time of source v3 to 9.71445e-018
Limiting rise time of source v1 to 5e-008
Limiting fall time of source v1 to 5e-008
Instance "m:u5:6": Length shorter than recommended for a level 2 MOSFET.
Instance "m:u5:5": Length shorter than recommended for a level 2 MOSFET.
Instance "m:u5:4": Length shorter than recommended for a level 2 MOSFET.
Instance "m:u5:3": Length shorter than recommended for a level 2 MOSFET.
Instance "m:u5:2": Length shorter than recommended for a level 2 MOSFET.
Instance "m:u5:1": Length shorter than recommended for a level 2 MOSFET.
Direct Newton iteration failed to find .op point.  (Use ".option noopiter" to skip.)
Starting Gmin stepping
Gmin = 10
Gmin = 1.07374
Gmin = 0.115292
Gmin = 0.0123794
Gmin = 0.00132923
vernier = 0.5
vernier = 0.25
vernier = 0.125
vernier = 0.0625
Gmin = 0.00100083
vernier = 0.03125
vernier = 0.015625
vernier = 0.0078125
vernier = 0.00390625
vernier = 0.00195313
Gmin = 0.00100083
vernier = 0.000976563
vernier = 0.000488281
Gmin = 0
Gmin stepping failed

Starting source stepping with srcstepmethod=0
Source Step = 3.0303%
vernier = 0.25
Source Step = 0.0177557%
Source Step = 0.0473485%
Source Step = 0.0769413%
Source Step = 0.106534%
Source Step = 0.136127%
vernier = 0.00146484
Source Step = 0.168679%
Source Step = 0.213068%
Source Step = 0.257457%
Source Step = 0.301847%
Source Step = 0.346236%
vernier = 0.00219727
Source Step = 0.392844%
Source Step = 0.459428%
Source Step = 0.526012%
Source Step = 0.592596%
Source Step = 0.65918%
Source Step = 0.725763%
vernier = 0.0032959
Source Step = 0.825639%
Source Step = 0.925515%
Source Step = 1.02539%
Source Step = 1.12527%
Source Step = 1.22514%
vernier = 0.00494385
Source Step = 1.36996%
Source Step = 1.51978%
Source Step = 1.66959%
Source Step = 1.8194%
Source Step = 1.96922%
vernier = 0.00741577
Source Step = 2.17896%
Source Step = 2.40368%
Source Step = 2.6284%
Source Step = 2.85312%
Source Step = 3.07784%
vernier = 0.0111237
Source Step = 3.38121%
Source Step = 3.71829%
Source Step = 4.05537%
Source Step = 4.39245%
Source Step = 4.72953%
vernier = 0.0166855
Source Step = 5.16774%
Source Step = 5.67336%
Source Step = 6.17898%
Source Step = 6.6846%
Source Step = 7.19022%
vernier = 0.0250282
Source Step = 7.82224%
Source Step = 8.58068%
Source Step = 9.33911%
Source Step = 10.0975%
Source Step = 10.856%
vernier = 0.0375423
Source Step = 11.7661%
Source Step = 12.9037%
Source Step = 14.0414%
Source Step = 15.179%
Source Step = 16.3167%
vernier = 0.0563135
Source Step = 17.625%
Source Step = 19.3314%
Source Step = 21.0379%
Source Step = 22.7444%
Source Step = 24.4508%
vernier = 0.0844703
Source Step = 26.328%
Source Step = 28.8877%
Source Step = 31.4474%
Source Step = 34.0071%
Source Step = 36.5668%
vernier = 0.126705
Source Step = 39.2545%
Source Step = 43.094%
Source Step = 46.9336%
Source Step = 50.7732%
Source Step = 54.6127%
Source Step = 58.4523%
vernier = 0.190058
Source Step = 64.2116%
Source Step = 69.9709%
Source Step = 75.7303%
Source Step = 81.4896%
Source Step = 87.2489%
vernier = 0.285087
Source Step = 90.6326%
Source Step = 91.1725%
Source Step = 91.7124%
Source Step = 92.2524%
Source Step = 92.7923%
vernier = 0.0267269
Source Step = 93.4132%
Source Step = 94.2231%
Source Step = 95.0331%
Source Step = 95.843%
Source Step = 96.6529%
vernier = 0.0400904
Source Step = 97.5438%
Source Step = 98.7586%
Source Step = 99.9735%
Source stepping succeeded in finding the operating point.


Date: Wed Feb 22 09:14:38 2023
Total elapsed time: 1.337 seconds.

tnom = 27
temp = 27
method = modified trap
totiter = 10713
traniter = 4021
tranpoints = 1675
accept = 1518
rejected = 157
matrix size = 90
fillins = 83
solver = Normal
Thread vector: 15.2/11.3[4] 5.1/5.2[1] 3.0/4.0[1] 0.5/382.6[1]  2592/500
Matrix Compiler1: 10.86 KB object code size  3.5/1.3/[0.6]
Matrix Compiler2: 9.54 KB object code size  2.0/2.3/[0.7]

